Circuit: * M:\UPB_Files\An1_Sem2\Electrotehnica\Tema\Circuitul_electric_rezistiv.asc

Direct Newton iteration for .op point succeeded.

Date: Fri May 20 19:20:46 2022
Total elapsed time: 0.026 seconds.

tnom = 27
temp = 27
method = trap
totiter = 3
traniter = 0
tranpoints = 0
accept = 0
rejected = 0
matrix size = 19
fillins = 10
solver = Normal
Matrix Compiler1: 1010 bytes object code size
Matrix Compiler2: 1.40 KB object code size
